File E:\Ramos Ingenieria\12° Semestre\Proyecto de Hormigón Armado\Tarea 06\Viga Qla.$2k was saved on m/d/yy at h:mm:ss
 
TABLE:  "ACTIVE DEGREES OF FREEDOM"
   UX=Yes   UY=Yes   UZ=Yes   RX=Yes   RY=Yes   RZ=Yes
 
TABLE:  "ANALYSIS OPTIONS"
   Solver=Advanced   SolverProc=Auto   Force32Bit=No   StiffCase=None   GeomMod=None   HingeOpt="In Elements"
 
TABLE:  "AUTO WAVE 3 - WAVE CHARACTERISTICS - GENERAL"
   WaveChar=Default   WaveType="From Theory"   KinFactor=1   SWaterDepth=4500   WaveHeight=1800   WavePeriod=12   WaveTheory=Linear
 
TABLE:  "CASE - MODAL 1 - GENERAL"
   Case=MODAL   ModeType=Eigen   MaxNumModes=12   MinNumModes=1   EigenShift=0   EigenCutoff=0   EigenTol=1E-09   AutoShift=Yes
 
TABLE:  "CASE - STATIC 1 - LOAD ASSIGNMENTS"
   Case=DEAD   LoadType="Load pattern"   LoadName=PP   LoadSF=1
   Case=SC   LoadType="Load pattern"   LoadName=SC   LoadSF=1
 
TABLE:  "COMBINATION DEFINITIONS"
   ComboName=COMB1   ComboType="Linear Add"   AutoDesign=No   CaseName=DEAD   ScaleFactor=1.2   SteelDesign=None   ConcDesign=None   AlumDesign=None   ColdDesign=None   GUID=786773d2-def5-436f-8931-cf7189917cde
   ComboName=COMB1   CaseName=SC   ScaleFactor=1.6
 
TABLE:  "CONNECTIVITY - FRAME"
   Frame=1   JointI=1   JointJ=2   IsCurved=No   GUID=e0ff309f-19aa-4354-b941-eb9742f3986b
   Frame=2   JointI=2   JointJ=3   IsCurved=No   GUID=db980e98-e01a-493d-ba5a-144a85ecbf40
   Frame=3   JointI=3   JointJ=4   IsCurved=No   GUID=7d5e144e-c436-40e8-ae0d-ff313ac948da
   Frame=4   JointI=4   JointJ=5   IsCurved=No   GUID=0e732f71-a188-442c-b6a5-6de9143e5997
   Frame=5   JointI=5   JointJ=6   IsCurved=No   GUID=79ca11e4-3ca5-4a1d-855a-c3f2d4e9bde4
   Frame=6   JointI=6   JointJ=7   IsCurved=No   GUID=8dc469ad-9cfb-41c1-af89-b31a39bbaa5a
 
TABLE:  "COORDINATE SYSTEMS"
   Name=GLOBAL   Type=Cartesian   X=0   Y=0   Z=0   AboutZ=0   AboutY=0   AboutX=0
 
TABLE:  "DATABASE DOCUMENTATION"
 
TABLE:  "DATABASE FORMAT TYPES"
   UnitsCurr=Yes   OverrideE=No
 
TABLE:  "FRAME AUTO MESH ASSIGNMENTS"
   Frame=1   AutoMesh=Yes   AtJoints=Yes   AtFrames=No   NumSegments=0   MaxLength=0   MaxDegrees=0
   Frame=2   AutoMesh=Yes   AtJoints=Yes   AtFrames=No   NumSegments=0   MaxLength=0   MaxDegrees=0
   Frame=3   AutoMesh=Yes   AtJoints=Yes   AtFrames=No   NumSegments=0   MaxLength=0   MaxDegrees=0
   Frame=4   AutoMesh=Yes   AtJoints=Yes   AtFrames=No   NumSegments=0   MaxLength=0   MaxDegrees=0
   Frame=5   AutoMesh=Yes   AtJoints=Yes   AtFrames=No   NumSegments=0   MaxLength=0   MaxDegrees=0
   Frame=6   AutoMesh=Yes   AtJoints=Yes   AtFrames=No   NumSegments=0   MaxLength=0   MaxDegrees=0
 
TABLE:  "FRAME DESIGN PROCEDURES"
   Frame=1   DesignProc="From Material"
   Frame=2   DesignProc="From Material"
   Frame=3   DesignProc="From Material"
   Frame=4   DesignProc="From Material"
   Frame=5   DesignProc="From Material"
   Frame=6   DesignProc="From Material"
 
TABLE:  "FRAME LOADS - DISTRIBUTED"
   Frame=1   LoadPat=PP   CoordSys=GLOBAL   Type=Force   Dir=Gravity   DistType=RelDist   RelDistA=0   RelDistB=0.51   AbsDistA=0   AbsDistB=255   FOverLA=0   FOverLB=10.5   GUID=f47a8e2f-e475-4cc3-9822-2e2f13c15b82
   Frame=1   LoadPat=PP   CoordSys=GLOBAL   Type=Force   Dir=Gravity   DistType=RelDist   RelDistA=0.51   RelDistB=1   AbsDistA=255   AbsDistB=500   FOverLA=10.5   FOverLB=0   GUID=324a1e8d-804d-4d92-b302-17a4c9e919d1
   Frame=1   LoadPat=SC   CoordSys=GLOBAL   Type=Force   Dir=Gravity   DistType=RelDist   RelDistA=0   RelDistB=0.51   AbsDistA=0   AbsDistB=255   FOverLA=0   FOverLB=12.35   GUID=83edb57a-9316-45a0-b2c6-af30959cfef9
   Frame=1   LoadPat=SC   CoordSys=GLOBAL   Type=Force   Dir=Gravity   DistType=RelDist   RelDistA=0.51   RelDistB=1   AbsDistA=255   AbsDistB=500   FOverLA=12.35   FOverLB=0   GUID=6a3a0f60-86a0-42d1-813f-1122db85d81e
   Frame=1   LoadPat=SC   CoordSys=GLOBAL   Type=Force   Dir=Gravity   DistType=RelDist   RelDistA=0   RelDistB=0.504   AbsDistA=0   AbsDistB=252   FOverLA=0   FOverLB=12.75   GUID=63bd508f-f7ad-414a-a2cf-9ee05848845e
   Frame=1   LoadPat=SC   CoordSys=GLOBAL   Type=Force   Dir=Gravity   DistType=RelDist   RelDistA=0.504   RelDistB=1   AbsDistA=252   AbsDistB=500   FOverLA=12.75   FOverLB=0   GUID=4e03cb7e-116f-474c-a77e-78e0c2f2837a
   Frame=1   LoadPat=PP   CoordSys=GLOBAL   Type=Force   Dir=Gravity   DistType=RelDist   RelDistA=0   RelDistB=0.504   AbsDistA=0   AbsDistB=252   FOverLA=0   FOverLB=10.84   GUID=2df68938-eb88-4b82-9e99-af66992191b9
   Frame=1   LoadPat=PP   CoordSys=GLOBAL   Type=Force   Dir=Gravity   DistType=RelDist   RelDistA=0.504   RelDistB=1   AbsDistA=252   AbsDistB=500   FOverLA=10.84   FOverLB=0   GUID=1b239370-b208-4401-a714-08db761f8ef3
   Frame=2   LoadPat=SC   CoordSys=GLOBAL   Type=Force   Dir=Gravity   DistType=RelDist   RelDistA=0   RelDistB=0.390666666666667   AbsDistA=0   AbsDistB=293   FOverLA=0   FOverLB=14.9   GUID=2e15283f-8cee-4ab6-bf22-15fcedeaa77d
   Frame=2   LoadPat=SC   CoordSys=GLOBAL   Type=Force   Dir=Gravity   DistType=RelDist   RelDistA=0.390666666666667   RelDistB=0.612   AbsDistA=293   AbsDistB=459   FOverLA=14.9   FOverLB=14.35   GUID=c8a91e7d-7bf0-4b8b-8002-f51790a4c571
   Frame=2   LoadPat=SC   CoordSys=GLOBAL   Type=Force   Dir=Gravity   DistType=RelDist   RelDistA=0.612   RelDistB=1   AbsDistA=459   AbsDistB=750   FOverLA=14.35   FOverLB=0   GUID=be8eeb7e-ebc2-4e65-b48a-ce29b1a236ca
   Frame=2   LoadPat=PP   CoordSys=GLOBAL   Type=Force   Dir=Gravity   DistType=RelDist   RelDistA=0   RelDistB=0.390666666666667   AbsDistA=0   AbsDistB=293   FOverLA=0   FOverLB=12.67   GUID=c511d5b7-f265-4ac0-a9da-aa1c9cea9012
   Frame=2   LoadPat=PP   CoordSys=GLOBAL   Type=Force   Dir=Gravity   DistType=RelDist   RelDistA=0.390666666666667   RelDistB=0.612   AbsDistA=293   AbsDistB=459   FOverLA=12.67   FOverLB=12.2   GUID=6b8e9725-32ff-44d4-a2ad-74846b01007e
   Frame=2   LoadPat=PP   CoordSys=GLOBAL   Type=Force   Dir=Gravity   DistType=RelDist   RelDistA=0.612   RelDistB=1   AbsDistA=459   AbsDistB=750   FOverLA=12.2   FOverLB=0   GUID=d17bdc8f-121c-4f7e-8d8f-c81e93b096e3
   Frame=2   LoadPat=SC   CoordSys=GLOBAL   Type=Force   Dir=Gravity   DistType=RelDist   RelDistA=0   RelDistB=0.334666666666667   AbsDistA=0   AbsDistB=251   FOverLA=0   FOverLB=12.35   GUID=fe345bd7-47c1-458a-b1ba-cca201e6db9b
   Frame=2   LoadPat=SC   CoordSys=GLOBAL   Type=Force   Dir=Gravity   DistType=RelDist   RelDistA=0.334666666666667   RelDistB=0.668   AbsDistA=251   AbsDistB=501   FOverLA=12.35   FOverLB=12.55   GUID=08d7ff02-bb7b-4183-9901-3e5359898e3a
   Frame=2   LoadPat=SC   CoordSys=GLOBAL   Type=Force   Dir=Gravity   DistType=RelDist   RelDistA=0.668   RelDistB=1   AbsDistA=501   AbsDistB=750   FOverLA=12.55   FOverLB=0   GUID=f6acb644-dd47-4515-9008-85f7d6e2fe2c
   Frame=2   LoadPat=PP   CoordSys=GLOBAL   Type=Force   Dir=Gravity   DistType=RelDist   RelDistA=0   RelDistB=0.334666666666667   AbsDistA=0   AbsDistB=251   FOverLA=0   FOverLB=10.5   GUID=4b4f951d-4c55-43c2-a50b-82508a7268a4
   Frame=2   LoadPat=PP   CoordSys=GLOBAL   Type=Force   Dir=Gravity   DistType=RelDist   RelDistA=0.334666666666667   RelDistB=0.668   AbsDistA=251   AbsDistB=501   FOverLA=10.5   FOverLB=12.35   GUID=db711c4c-7400-4b46-8c19-266637e5fda1
   Frame=2   LoadPat=PP   CoordSys=GLOBAL   Type=Force   Dir=Gravity   DistType=RelDist   RelDistA=0.668   RelDistB=1   AbsDistA=501   AbsDistB=750   FOverLA=12.35   FOverLB=0   GUID=26e59050-f153-4657-afd3-4cf93f026eda
   Frame=3   LoadPat=SC   CoordSys=GLOBAL   Type=Force   Dir=Gravity   DistType=RelDist   RelDistA=0   RelDistB=0.333333333333333   AbsDistA=0   AbsDistB=250   FOverLA=0   FOverLB=12.4   GUID=59b3ee3e-46ce-4ebf-b0c7-120104672748
   Frame=3   LoadPat=SC   CoordSys=GLOBAL   Type=Force   Dir=Gravity   DistType=RelDist   RelDistA=0.333333333333333   RelDistB=0.666666666666667   AbsDistA=250   AbsDistB=500   FOverLA=12.4   FOverLB=12.7   GUID=60484f88-82cd-4762-9fa6-2eefd3bf0241
   Frame=3   LoadPat=SC   CoordSys=GLOBAL   Type=Force   Dir=Gravity   DistType=RelDist   RelDistA=0.666666666666667   RelDistB=1   AbsDistA=500   AbsDistB=750   FOverLA=12.7   FOverLB=0   GUID=4fd50765-e577-49a4-a892-4c90d378a46b
   Frame=3   LoadPat=PP   CoordSys=GLOBAL   Type=Force   Dir=Gravity   DistType=RelDist   RelDistA=0   RelDistB=0.333333333333333   AbsDistA=0   AbsDistB=250   FOverLA=0   FOverLB=10.54   GUID=f96b46a0-b634-44cd-aa97-46bd8006b26c
   Frame=3   LoadPat=PP   CoordSys=GLOBAL   Type=Force   Dir=Gravity   DistType=RelDist   RelDistA=0.333333333333333   RelDistB=0.666666666666667   AbsDistA=250   AbsDistB=500   FOverLA=10.54   FOverLB=10.8   GUID=021de9d1-0680-4753-8ccd-25dc5229978f
   Frame=3   LoadPat=PP   CoordSys=GLOBAL   Type=Force   Dir=Gravity   DistType=RelDist   RelDistA=0.666666666666667   RelDistB=1   AbsDistA=500   AbsDistB=750   FOverLA=10.8   FOverLB=0   GUID=0d85aba2-1b03-4351-a971-6c80220dc791
   Frame=3   LoadPat=PP   CoordSys=GLOBAL   Type=Force   Dir=Gravity   DistType=RelDist   RelDistA=0   RelDistB=0.373333333333333   AbsDistA=0   AbsDistB=280   FOverLA=0   FOverLB=12.07   GUID=3710b109-6e43-4d42-8390-3b0ef2a5eccc
   Frame=3   LoadPat=PP   CoordSys=GLOBAL   Type=Force   Dir=Gravity   DistType=RelDist   RelDistA=0.373333333333333   RelDistB=0.589333333333333   AbsDistA=280   AbsDistB=442   FOverLA=12.07   FOverLB=12.92   GUID=5cbc2596-46e4-4700-be14-ba6be14f6bb0
   Frame=3   LoadPat=PP   CoordSys=GLOBAL   Type=Force   Dir=Gravity   DistType=RelDist   RelDistA=0.589333333333333   RelDistB=1   AbsDistA=442   AbsDistB=750   FOverLA=12.92   FOverLB=0   GUID=29fff699-6636-44a1-9a79-7a5f2c365eab
   Frame=3   LoadPat=SC   CoordSys=GLOBAL   Type=Force   Dir=Gravity   DistType=RelDist   RelDistA=0   RelDistB=0.373333333333333   AbsDistA=0   AbsDistB=280   FOverLA=0   FOverLB=14.2   GUID=4169e692-04c9-4d97-94ba-561c8a5d0708
   Frame=3   LoadPat=SC   CoordSys=GLOBAL   Type=Force   Dir=Gravity   DistType=RelDist   RelDistA=0.373333333333333   RelDistB=0.589333333333333   AbsDistA=280   AbsDistB=442   FOverLA=14.2   FOverLB=15.2   GUID=b41842d2-99a6-454c-8650-ebbed6834773
   Frame=3   LoadPat=SC   CoordSys=GLOBAL   Type=Force   Dir=Gravity   DistType=RelDist   RelDistA=0.589333333333333   RelDistB=1   AbsDistA=442   AbsDistB=750   FOverLA=15.2   FOverLB=0   GUID=d6fb2176-2295-4f61-9af8-a69e1fd59cd9
   Frame=4   LoadPat=SC   CoordSys=GLOBAL   Type=Force   Dir=Gravity   DistType=RelDist   RelDistA=0   RelDistB=0.364   AbsDistA=0   AbsDistB=273   FOverLA=0   FOverLB=14.25   GUID=c2cd0f50-617a-41f3-8913-2848fa3e8bd5
   Frame=4   LoadPat=SC   CoordSys=GLOBAL   Type=Force   Dir=Gravity   DistType=RelDist   RelDistA=0.364   RelDistB=1   AbsDistA=273   AbsDistB=750   FOverLA=14.25   FOverLB=14.2   GUID=4436f03d-d691-4c91-871d-df69a173a158
   Frame=4   LoadPat=PP   CoordSys=GLOBAL   Type=Force   Dir=Gravity   DistType=RelDist   RelDistA=0   RelDistB=0.364   AbsDistA=0   AbsDistB=273   FOverLA=0   FOverLB=12.07   GUID=fb485fda-0578-4b2b-bf2e-20f04b7f9613
   Frame=4   LoadPat=PP   CoordSys=GLOBAL   Type=Force   Dir=Gravity   DistType=RelDist   RelDistA=0.364   RelDistB=1   AbsDistA=273   AbsDistB=750   FOverLA=12.07   FOverLB=12.11   GUID=a5fab283-e9af-4aa6-83e1-a431e27d59d7
   Frame=4   LoadPat=PP   CoordSys=GLOBAL   Type=Force   Dir=Gravity   DistType=RelDist   RelDistA=0   RelDistB=0.664   AbsDistA=0   AbsDistB=498   FOverLA=0   FOverLB=10.63   GUID=b2f3cbbe-1673-45e6-89ce-6c1e507516a3
   Frame=4   LoadPat=PP   CoordSys=GLOBAL   Type=Force   Dir=Gravity   DistType=RelDist   RelDistA=0.336   RelDistB=1   AbsDistA=252   AbsDistB=750   FOverLA=10.84   FOverLB=0   GUID=59d1cdda-dce8-4a62-b857-207d91bc1959
   Frame=4   LoadPat=SC   CoordSys=GLOBAL   Type=Force   Dir=Gravity   DistType=RelDist   RelDistA=0   RelDistB=0.664   AbsDistA=0   AbsDistB=498   FOverLA=0   FOverLB=12.5   GUID=32bdcf33-aae5-4fb6-80fb-b6af99a85d52
   Frame=4   LoadPat=SC   CoordSys=GLOBAL   Type=Force   Dir=Gravity   DistType=RelDist   RelDistA=0.336   RelDistB=1   AbsDistA=252   AbsDistB=750   FOverLA=12.75   FOverLB=0   GUID=be75d06c-2ab3-4413-88a0-f3491f2c371a
   Frame=5   LoadPat=PP   CoordSys=GLOBAL   Type=Force   Dir=Gravity   DistType=RelDist   RelDistA=0   RelDistB=0.503432494279176   AbsDistA=0   AbsDistB=220   FOverLA=0   FOverLB=9.31   GUID=25ab38dd-f698-4024-ac7d-aa735efa1729
   Frame=5   LoadPat=PP   CoordSys=GLOBAL   Type=Force   Dir=Gravity   DistType=RelDist   RelDistA=0.503432494279176   RelDistB=1   AbsDistA=220   AbsDistB=437   FOverLA=9.31   FOverLB=0   GUID=1aed751d-9779-4688-b5f5-65b9d2ecc012
   Frame=5   LoadPat=SC   CoordSys=GLOBAL   Type=Force   Dir=Gravity   DistType=RelDist   RelDistA=0   RelDistB=0.503432494279176   AbsDistA=0   AbsDistB=220   FOverLA=0   FOverLB=10.95   GUID=081d79a7-49fd-4701-86ce-3ce2b714bdec
   Frame=5   LoadPat=SC   CoordSys=GLOBAL   Type=Force   Dir=Gravity   DistType=RelDist   RelDistA=0.503432494279176   RelDistB=1   AbsDistA=220   AbsDistB=437   FOverLA=10.95   FOverLB=0   GUID=95c4e4e4-1db9-4f82-bb4c-f898a47387d4
   Frame=5   LoadPat=PP   CoordSys=GLOBAL   Type=Force   Dir=Gravity   DistType=RelDist   RelDistA=0   RelDistB=0.340961098398169   AbsDistA=0   AbsDistB=149   FOverLA=0   FOverLB=12.11   GUID=7080e634-e1ee-4dd8-bbcf-3f133fb836df
   Frame=5   LoadPat=PP   CoordSys=GLOBAL   Type=Force   Dir=Gravity   DistType=RelDist   RelDistA=0.340961098398169   RelDistB=1   AbsDistA=149   AbsDistB=437   FOverLA=12.11   FOverLB=12.11   GUID=1e8e0087-daa2-416d-8449-367de5c13171
   Frame=5   LoadPat=SC   CoordSys=GLOBAL   Type=Force   Dir=Gravity   DistType=RelDist   RelDistA=0   RelDistB=0.340961098398169   AbsDistA=0   AbsDistB=149   FOverLA=0   FOverLB=14.25   GUID=0291b518-b05d-4573-a79f-3bf652b2afbf
   Frame=5   LoadPat=SC   CoordSys=GLOBAL   Type=Force   Dir=Gravity   DistType=RelDist   RelDistA=0.340961098398169   RelDistB=1   AbsDistA=149   AbsDistB=437   FOverLA=14.25   FOverLB=14.25   GUID=01590dc2-79d2-46eb-8197-ea6dcde8d53d
   Frame=6   LoadPat=PP   CoordSys=GLOBAL   Type=Force   Dir=Gravity   DistType=RelDist   RelDistA=0   RelDistB=0.513119533527697   AbsDistA=0   AbsDistB=176   FOverLA=0   FOverLB=11.77   GUID=7de9cd02-3a29-4feb-8ac6-14a855df5e6e
   Frame=6   LoadPat=PP   CoordSys=GLOBAL   Type=Force   Dir=Gravity   DistType=RelDist   RelDistA=0.513119533527697   RelDistB=1   AbsDistA=176   AbsDistB=343   FOverLA=11.77   FOverLB=0   GUID=bd9051c9-227c-4126-934b-9373802ed3e8
   Frame=6   LoadPat=SC   CoordSys=GLOBAL   Type=Force   Dir=Gravity   DistType=RelDist   RelDistA=0   RelDistB=0.513119533527697   AbsDistA=0   AbsDistB=176   FOverLA=0   FOverLB=13.85   GUID=a66621c1-ac34-410f-868f-43a843f37ed5
   Frame=6   LoadPat=SC   CoordSys=GLOBAL   Type=Force   Dir=Gravity   DistType=RelDist   RelDistA=0.513119533527697   RelDistB=1   AbsDistA=176   AbsDistB=343   FOverLA=13.85   FOverLB=0   GUID=84bd63eb-70f3-4591-a731-f599e5b84065
   Frame=6   LoadPat=SC   CoordSys=GLOBAL   Type=Force   Dir=Gravity   DistType=RelDist   RelDistA=0   RelDistB=0.518950437317784   AbsDistA=0   AbsDistB=178   FOverLA=0   FOverLB=8.85   GUID=922fc8da-e6ab-44bf-b341-7907ac2f913c
   Frame=6   LoadPat=SC   CoordSys=GLOBAL   Type=Force   Dir=Gravity   DistType=RelDist   RelDistA=0.518950437317784   RelDistB=1   AbsDistA=178   AbsDistB=343   FOverLA=8.85   FOverLB=0   GUID=35c126c0-6837-49cf-9c4c-90a485f172f7
   Frame=6   LoadPat=PP   CoordSys=GLOBAL   Type=Force   Dir=Gravity   DistType=RelDist   RelDistA=0   RelDistB=0.518950437317784   AbsDistA=0   AbsDistB=178   FOverLA=0   FOverLB=7.52   GUID=30f0d701-4176-4a22-a724-f29510c6eed9
   Frame=6   LoadPat=PP   CoordSys=GLOBAL   Type=Force   Dir=Gravity   DistType=RelDist   RelDistA=0.518950437317784   RelDistB=1   AbsDistA=178   AbsDistB=343   FOverLA=7.52   FOverLB=0   GUID=3b063e00-764f-49ce-bd71-d9c87e066bbd
 
TABLE:  "FRAME LOAD TRANSFER OPTIONS"
   Frame=1   Transfer=Yes
   Frame=2   Transfer=Yes
   Frame=3   Transfer=Yes
   Frame=4   Transfer=Yes
   Frame=5   Transfer=Yes
   Frame=6   Transfer=Yes
 
TABLE:  "FRAME OUTPUT STATION ASSIGNMENTS"
   Frame=1   StationType=MaxStaSpcg   MaxStaSpcg=50   AddAtElmInt=Yes   AddAtPtLoad=Yes
   Frame=2   StationType=MaxStaSpcg   MaxStaSpcg=50   AddAtElmInt=Yes   AddAtPtLoad=Yes
   Frame=3   StationType=MaxStaSpcg   MaxStaSpcg=50   AddAtElmInt=Yes   AddAtPtLoad=Yes
   Frame=4   StationType=MaxStaSpcg   MaxStaSpcg=50   AddAtElmInt=Yes   AddAtPtLoad=Yes
   Frame=5   StationType=MaxStaSpcg   MaxStaSpcg=50   AddAtElmInt=Yes   AddAtPtLoad=Yes
   Frame=6   StationType=MaxStaSpcg   MaxStaSpcg=50   AddAtElmInt=Yes   AddAtPtLoad=Yes
 
TABLE:  "FRAME SECTION ASSIGNMENTS"
   Frame=1   AutoSelect=N.A.   AnalSect="V30/50 G35"   MatProp=Default
   Frame=2   AutoSelect=N.A.   AnalSect="V30/50 G35"   MatProp=Default
   Frame=3   AutoSelect=N.A.   AnalSect="V30/50 G35"   MatProp=Default
   Frame=4   AutoSelect=N.A.   AnalSect="V30/50 G35"   MatProp=Default
   Frame=5   AutoSelect=N.A.   AnalSect="V30/50 G35"   MatProp=Default
   Frame=6   AutoSelect=N.A.   AnalSect="V30/50 G35"   MatProp=Default
 
TABLE:  "FRAME SECTION PROPERTIES 01 - GENERAL"
   SectionName="V30/50 G35"   Material=Concrete   Shape=Rectangular   t3=50   t2=30   Area=1500   TorsConst=281737.08   I33=312500   I22=112500   I23=0   AS2=1250   AS3=1250   S33=12500   S22=7500   Z33=18750   Z22=11250 _
        R33=14.4337567297406   R22=8.66025403784439   Color=Blue   FromFile=No   AMod=1   A2Mod=1   A3Mod=1   JMod=1   I2Mod=1   I3Mod=1   MMod=1   WMod=1   Notes="Added 26/11/2018 06:11:27 p. m."
 
TABLE:  "FRAME SECTION PROPERTIES 02 - CONCRETE COLUMN"
   SectionName="V30/50 G35"   RebarMatL=A615Gr60   RebarMatC=A615Gr60   ReinfConfig=Rectangular   LatReinf=Ties   Cover=4   NumBars3Dir=3   NumBars2Dir=3   BarSizeL=#9   BarSizeC=#4   SpacingC=15   NumCBars2=3   NumCBars3=3   ReinfType=Design
 
TABLE:  "FRAME SECTION PROPERTIES 13 - TIME DEPENDENT"
   SectionName="V30/50 G35"   TypeSize=Auto   AutoSFSize=1
 
TABLE:  "FUNCTION - PLOT FUNCTIONS"
   PlotFunc="Input Energy"   Type=Energy   Component=Input   Mode=All
 
TABLE:  "FUNCTION - POWER SPECTRAL DENSITY - USER"
   Name=UNIFPSD   Frequency=0   Value=1
   Name=UNIFPSD   Frequency=1   Value=1
 
TABLE:  "FUNCTION - RESPONSE SPECTRUM - USER"
   Name=UNIFRS   Period=0   Accel=1   FuncDamp=0.05
   Name=UNIFRS   Period=1   Accel=1
 
TABLE:  "FUNCTION - STEADY STATE - USER"
   Name=UNIFSS   Frequency=0   Value=1
   Name=UNIFSS   Frequency=1   Value=1
 
TABLE:  "FUNCTION - TIME HISTORY - USER"
   Name=RAMPTH   Time=0   Value=0
   Name=RAMPTH   Time=1   Value=1
   Name=RAMPTH   Time=4   Value=1
   Name=UNIFTH   Time=0   Value=1
   Name=UNIFTH   Time=1   Value=1
 
TABLE:  "GRID LINES"
   CoordSys=GLOBAL   AxisDir=X   GridID=A   XRYZCoord=0   LineType=Primary   LineColor=Gray8Dark   Visible=Yes   BubbleLoc=End   AllVisible=Yes   BubbleSize=125
   CoordSys=GLOBAL   AxisDir=Y   GridID=1   XRYZCoord=0   LineType=Primary   LineColor=Gray8Dark   Visible=Yes   BubbleLoc=Start
   CoordSys=GLOBAL   AxisDir=Y   GridID=2   XRYZCoord=500   LineType=Primary   LineColor=Gray8Dark   Visible=Yes   BubbleLoc=Start
   CoordSys=GLOBAL   AxisDir=Y   GridID=3   XRYZCoord=1250   LineType=Primary   LineColor=Gray8Dark   Visible=Yes   BubbleLoc=Start
   CoordSys=GLOBAL   AxisDir=Y   GridID=4   XRYZCoord=2000   LineType=Primary   LineColor=Gray8Dark   Visible=Yes   BubbleLoc=Start
   CoordSys=GLOBAL   AxisDir=Y   GridID=5   XRYZCoord=2750   LineType=Primary   LineColor=Gray8Dark   Visible=Yes   BubbleLoc=Start
   CoordSys=GLOBAL   AxisDir=Y   GridID=6   XRYZCoord=3187   LineType=Primary   LineColor=Gray8Dark   Visible=Yes   BubbleLoc=Start
   CoordSys=GLOBAL   AxisDir=Y   GridID=7   XRYZCoord=3530   LineType=Primary   LineColor=Gray8Dark   Visible=Yes   BubbleLoc=Start
   CoordSys=GLOBAL   AxisDir=Z   GridID=Z1   XRYZCoord=0   LineType=Primary   LineColor=Gray8Dark   Visible=Yes   BubbleLoc=End
 
TABLE:  "GROUPS 1 - DEFINITIONS"
   GroupName=ALL   Selection=Yes   SectionCut=Yes   Steel=Yes   Concrete=Yes   Aluminum=Yes   ColdFormed=Yes   Stage=Yes   Bridge=Yes   AutoSeismic=No   AutoWind=No   SelDesSteel=No   SelDesAlum=No   SelDesCold=No   MassWeight=Yes   Color=Red
 
TABLE:  "JOINT COORDINATES"
   Joint=1   CoordSys=GLOBAL   CoordType=Cartesian   XorR=0   Y=0   Z=0   SpecialJt=No   GUID=9eb4c912-53f1-4402-9874-f3e2853bd8ff
   Joint=2   CoordSys=GLOBAL   CoordType=Cartesian   XorR=0   Y=500   Z=0   SpecialJt=No   GUID=53fe1784-48b9-4c58-a2c8-1d68b0c809b7
   Joint=3   CoordSys=GLOBAL   CoordType=Cartesian   XorR=0   Y=1250   Z=0   SpecialJt=No   GUID=b3294372-ec27-422a-80e7-874f68367762
   Joint=4   CoordSys=GLOBAL   CoordType=Cartesian   XorR=0   Y=2000   Z=0   SpecialJt=No   GUID=db446cd4-b74a-44b0-b189-9a30d33f44d5
   Joint=5   CoordSys=GLOBAL   CoordType=Cartesian   XorR=0   Y=2750   Z=0   SpecialJt=No   GUID=4f3c39be-9fc5-4432-b445-743c4efcc391
   Joint=6   CoordSys=GLOBAL   CoordType=Cartesian   XorR=0   Y=3187   Z=0   SpecialJt=No   GUID=af7f539f-3ed4-47f2-b00c-1c086124dc2f
   Joint=7   CoordSys=GLOBAL   CoordType=Cartesian   XorR=0   Y=3530   Z=0   SpecialJt=No   GUID=a4200a61-441b-46e1-b410-fd7f321e645c
 
TABLE:  "JOINT PATTERN DEFINITIONS"
   Pattern=Default
 
TABLE:  "JOINT RESTRAINT ASSIGNMENTS"
   Joint=1   U1=Yes   U2=Yes   U3=Yes   R1=No   R2=No   R3=No
   Joint=2   U1=Yes   U2=Yes   U3=Yes   R1=No   R2=No   R3=No
   Joint=3   U1=Yes   U2=Yes   U3=Yes   R1=No   R2=No   R3=No
   Joint=4   U1=Yes   U2=Yes   U3=Yes   R1=No   R2=No   R3=No
   Joint=5   U1=Yes   U2=Yes   U3=Yes   R1=No   R2=No   R3=No
   Joint=6   U1=Yes   U2=Yes   U3=Yes   R1=No   R2=No   R3=No
   Joint=7   U1=Yes   U2=Yes   U3=Yes   R1=No   R2=No   R3=No
 
TABLE:  "LOAD CASE DEFINITIONS"
   Case=DEAD   Type=LinStatic   InitialCond=Zero   DesTypeOpt="Prog Det"   DesignType=Dead   DesActOpt="Prog Det"   DesignAct=Non-Composite   AutoType=None   RunCase=Yes   GUID=11ceef2d-fee1-462b-a197-1b1587e3517e
   Case=MODAL   Type=LinModal   InitialCond=Zero   DesTypeOpt="Prog Det"   DesignType=Other   DesActOpt="Prog Det"   DesignAct=Other   AutoType=None   RunCase=No   GUID=8e50c065-16c8-40a4-b96f-ebd4be613ec6
   Case=SC   Type=LinStatic   InitialCond=Zero   DesTypeOpt="Prog Det"   DesignType=Live   DesActOpt="Prog Det"   DesignAct="Short-Term Composite"   AutoType=None   RunCase=Yes   GUID=86a33551-bcc2-490f-ad14-64cdc1b7e6e1
 
TABLE:  "LOAD PATTERN DEFINITIONS"
   LoadPat=PP   DesignType=Dead   SelfWtMult=1   GUID=2bf7ebdc-714b-453b-8dbc-47e8223ebcb1
   LoadPat=SC   DesignType=Live   SelfWtMult=0   GUID=32aadea5-6260-4dc7-bdb4-10e291b9171b
 
TABLE:  "MASS SOURCE"
   MassSource=MSSSRC1   Elements=Yes   Masses=Yes   Loads=No   IsDefault=Yes
 
TABLE:  "MATERIAL PROPERTIES 01 - GENERAL"
   Material=4000Psi   Type=Concrete   Grade="f'c 4000 psi"   SymType=Isotropic   TempDepend=No   Color=Red   Notes="Customary f'c 4000 psi 26/11/2018 06:07:00 p. m."
   Material=A615Gr60   Type=Rebar   Grade="Grade 60"   SymType=Uniaxial   TempDepend=No   Color=Green   Notes="ASTM A615 Grade 60 26/11/2018 06:12:57 p. m."
   Material=A992Fy50   Type=Steel   Grade="Grade 50"   SymType=Isotropic   TempDepend=No   Color=Cyan   Notes="ASTM A992 Grade 50 26/11/2018 06:07:00 p. m."
   Material=Concrete   Type=Concrete   Grade=G35   SymType=Isotropic   TempDepend=No   Color=Red   Notes="Concrete added 26/11/2018 06:10:43 p. m."
 
TABLE:  "MATERIAL PROPERTIES 02 - BASIC MECHANICAL PROPERTIES"
   Material=4000Psi   UnitWeight=0.00240276966513304   UnitMass=2.45014307299924E-06   E1=253456.354148831   G12=105606.81422868   U12=0.2   A1=9.89999952793124E-06
   Material=A615Gr60   UnitWeight=0.00784904757236607   UnitMass=8.0038007068661E-06   E1=2038901.91580383   A1=1.16999994421006E-05
   Material=A992Fy50   UnitWeight=0.00784904757236607   UnitMass=8.0038007068661E-06   E1=2038901.91580383   G12=784193.044539935   U12=0.3   A1=1.16999994421006E-05
   Material=Concrete   UnitWeight=0.00240276966501002   UnitMass=2.45014307353044E-06   E1=253456.356440272   G12=105606.815183447   U12=0.2   A1=9.89999952793124E-06
 
TABLE:  "MATERIAL PROPERTIES 03A - STEEL DATA"
   Material=A992Fy50   Fy=3515.34813069626   Fu=4569.95256990514   EffFy=3866.88294376589   EffFu=5026.94782689565   SSCurveOpt=Simple   SSHysType=Kinematic   SHard=0.015   SMax=0.11   SRup=0.17   FinalSlope=-0.1
 
TABLE:  "MATERIAL PROPERTIES 03B - CONCRETE DATA"
   Material=4000Psi   Fc=281.227850455701   eFc=281.227850455701   LtWtConc=No   SSCurveOpt=Mander   SSHysType=Takeda   SFc=0.00221914   SCap=0.005   FinalSlope=-0.1   FAngle=0   DAngle=0
   Material=Concrete   Fc=350   eFc=350   LtWtConc=No   SSCurveOpt=Mander   SSHysType=Takeda   SFc=0.002   SCap=0.005   FinalSlope=-0.1   FAngle=0   DAngle=0
 
TABLE:  "MATERIAL PROPERTIES 03E - REBAR DATA"
   Material=A615Gr60   Fy=4218.41775683551   Fu=6327.62663525327   EffFy=4640.25953251907   EffFu=6960.3892987786   SSCurveOpt=Simple   SSHysType=Kinematic   SHard=0.01   SCap=0.09   FinalSlope=-0.1   UseCTDef=No
 
TABLE:  "MATERIAL PROPERTIES 06 - DAMPING PARAMETERS"
   Material=4000Psi   ModalRatio=0   VisMass=0   VisStiff=0   HysMass=0   HysStiff=0
   Material=A615Gr60   ModalRatio=0   VisMass=0   VisStiff=0   HysMass=0   HysStiff=0
   Material=A992Fy50   ModalRatio=0   VisMass=0   VisStiff=0   HysMass=0   HysStiff=0
   Material=Concrete   ModalRatio=0   VisMass=0   VisStiff=0   HysMass=0   HysStiff=0
 
TABLE:  "OPTIONS - COLORS - DISPLAY"
   DeviceType=Screen   Points=Blue   LinesFrame=Blue   LinesFrmDL=Blue   LinesCable=Green   LinesTendon=Green   SpringLinks=Green   Restraints=Green   Releases=Green   Axes=Cyan   Text=Black   ShadowLines=Gray8Dark   GuideLines=Gray8Dark _
        Highlight=Red   Selection=10504778   AreaFillBot=Red   AreaFillTop=16744703   AreaFillSd=Red   AreaEdge=DarkRed   SolidF1=Red   SolidF2=Blue   SolidF3=Green   SolidF4=Yellow   SolidF5=White   SolidF6=Cyan   SolidEdge=DarkRed _
        Floor=Gray4   Background=White   BGLowLeft=White   BGLowRight=White   BGUpRight=White   Darkness=0.5
   DeviceType=Printer   Points=Gray8Dark   LinesFrame=Black   LinesFrmDL=Gray4   LinesCable=Black   LinesTendon=Black   SpringLinks=Gray8Dark   Restraints=Gray8Dark   Releases=Gray4   Axes=Black   Text=Black   ShadowLines=Gray4 _
        GuideLines=Gray4   Highlight=Black   Selection=Black   AreaFillBot=Gray4   AreaFillTop=Gray8Dark   AreaFillSd=Gray4   AreaEdge=Black   SolidF1=Gray1Light   SolidF2=Gray2   SolidF3=Gray3   SolidF4=Gray4   SolidF5=Gray5 _
        SolidF6=Gray6   SolidEdge=Black   Floor=Gray4   Background=White   BGLowLeft=White   BGLowRight=White   BGUpRight=White   Darkness=0.5
   DeviceType="Color Printer"   Points=Blue   LinesFrame=Blue   LinesFrmDL=Blue   LinesCable=Green   LinesTendon=Green   SpringLinks=Green   Restraints=Green   Releases=Green   Axes=Cyan   Text=Black   ShadowLines=Gray8Dark _
        GuideLines=Gray8Dark   Highlight=Red   Selection=10504778   AreaFillBot=Red   AreaFillTop=16744703   AreaFillSd=Red   AreaEdge=DarkRed   SolidF1=Red   SolidF2=Blue   SolidF3=Green   SolidF4=Yellow   SolidF5=White   SolidF6=Cyan _
        SolidEdge=DarkRed   Floor=Gray4   Background=White   BGLowLeft=White   BGLowRight=White   BGUpRight=White   Darkness=0.5
 
TABLE:  "OPTIONS - COLORS - OUTPUT"
   DeviceType=Screen   Contour1=13107400   Contour2=6553828   Contour3=Red   Contour4=16639   Contour5=Orange   Contour6=43775   Contour7=54527   Contour8=Yellow   Contour9=65408   Contour10=Green   Contour11=8453888   Contour12=Cyan _
        Contour13=16755200   Contour14=16733440   Contour15=Blue   Transpare=0.5   Ratio1=Cyan   Ratio2=Green   Ratio3=Yellow   Ratio4=Orange   Ratio5=Red   RatioNotD=Gray4   RatioNotC=Red   RatioVal1=0.5   RatioVal2=0.7   RatioVal3=0.9 _
        RatioVal4=1   DFillPos=Blue   DFillNeg=Red   DFillRPos=Green   DFillRNeg=Green
   DeviceType=Printer   Contour1=Black   Contour2=3158064   Contour3=4210752   Contour4=5263440   Contour5=6316128   Contour6=7368816   Contour7=Gray8Dark   Contour8=Gray7   Contour9=Gray6   Contour10=Gray5   Contour11=Gray4 _
        Contour12=Gray3   Contour13=Gray2   Contour14=Gray1Light   Contour15=White   Transpare=0   Ratio1=Gray2   Ratio2=Gray4   Ratio3=Gray8Dark   Ratio4=4210752   Ratio5=Black   RatioNotD=Gray4   RatioNotC=Black   RatioVal1=0.5 _
        RatioVal2=0.7   RatioVal3=0.9   RatioVal4=1   DFillPos=Gray8Dark   DFillNeg=Gray8Dark   DFillRPos=4210752   DFillRNeg=4210752
   DeviceType="Color Printer"   Contour1=13107400   Contour2=6553828   Contour3=Red   Contour4=16639   Contour5=Orange   Contour6=43775   Contour7=54527   Contour8=Yellow   Contour9=65408   Contour10=Green   Contour11=8453888 _
        Contour12=Cyan   Contour13=16755200   Contour14=16733440   Contour15=Blue   Transpare=0   Ratio1=Cyan   Ratio2=Green   Ratio3=Yellow   Ratio4=Orange   Ratio5=Red   RatioNotD=Gray4   RatioNotC=Red   RatioVal1=0.5   RatioVal2=0.7 _
        RatioVal3=0.9   RatioVal4=1   DFillPos=Blue   DFillNeg=Red   DFillRPos=Green   DFillRNeg=Green
 
TABLE:  "OVERWRITES - CONCRETE DESIGN - ACI 318-14"
   Frame=1   DesignSect="Program Determined"   FrameType="Program Determined"   RLLF=0   XLMajor=0   XLMinor=0   XKMajor=0   XKMinor=0   CmMajor=0   CmMinor=0   DnsMajor=0   DnsMinor=0   DsMajor=0   DsMinor=0
   Frame=2   DesignSect="Program Determined"   FrameType="Program Determined"   RLLF=0   XLMajor=0   XLMinor=0   XKMajor=0   XKMinor=0   CmMajor=0   CmMinor=0   DnsMajor=0   DnsMinor=0   DsMajor=0   DsMinor=0
   Frame=3   DesignSect="Program Determined"   FrameType="Program Determined"   RLLF=0   XLMajor=0   XLMinor=0   XKMajor=0   XKMinor=0   CmMajor=0   CmMinor=0   DnsMajor=0   DnsMinor=0   DsMajor=0   DsMinor=0
   Frame=4   DesignSect="Program Determined"   FrameType="Program Determined"   RLLF=0   XLMajor=0   XLMinor=0   XKMajor=0   XKMinor=0   CmMajor=0   CmMinor=0   DnsMajor=0   DnsMinor=0   DsMajor=0   DsMinor=0
   Frame=5   DesignSect="Program Determined"   FrameType="Program Determined"   RLLF=0   XLMajor=0   XLMinor=0   XKMajor=0   XKMinor=0   CmMajor=0   CmMinor=0   DnsMajor=0   DnsMinor=0   DsMajor=0   DsMinor=0
   Frame=6   DesignSect="Program Determined"   FrameType="Program Determined"   RLLF=0   XLMajor=0   XLMinor=0   XKMajor=0   XKMinor=0   CmMajor=0   CmMinor=0   DnsMajor=0   DnsMinor=0   DsMajor=0   DsMinor=0
 
TABLE:  "PREFERENCES - ALUMINUM DESIGN - AA-ASD 2000"
   THDesign=Envelopes   FrameType="Moment Frame"   SRatioLimit=1   MaxIter=1   LatFact=1.33333333333333   UseLatFact=No   Bridge=No
 
TABLE:  "PREFERENCES - COLD FORMED DESIGN - AISI-ASD96"
   THDesign=Envelopes   FrameType="Braced Frame"   SRatioLimit=1   MaxIter=1   OmegaBS=1.67   OmegaBUS=1.67   OmegaBLTB=1.67   OmegaVS=1.67   OmegaVNS=1.5   OmegaT=1.67   OmegaC=1.8
 
TABLE:  "PREFERENCES - CONCRETE DESIGN - ACI 318-14"
   THDesign=Envelopes   NumCurves=24   NumPoints=11   MinEccen=Yes   PatLLF=0.75   UFLimit=0.95   SeisCat=D   Rho=1   Sds=0.5   PhiT=0.9   PhiCTied=0.65   PhiCSpiral=0.75   PhiV=0.75   PhiVSeismic=0.6   PhiVJoint=0.85
 
TABLE:  "PREFERENCES - DIMENSIONAL"
   MergeTol=0.1   FineGrid=25   Nudge=25   SelectTol=3   SnapTol=12   SLineThick=2   PLineThick=4   MaxFont=8   MinFont=3   AutoZoom=10   ShrinkFact=70   TextFileLen=240
 
TABLE:  "PREFERENCES - STEEL DESIGN - AISC 360-10"
   THDesign=Envelopes   FrameType=SMF   PatLLF=0.75   SRatioLimit=0.95   MaxIter=1   SDC=D   SeisCode=Yes   SeisLoad=Yes   ImpFactor=1   SystemRho=1   SystemSds=0.5   SystemR=8   SystemCd=5.5   Omega0=3   Provision=LRFD _
        AMethod="Direct Analysis"   SOMethod="General 2nd Order"   SRMethod="Tau-b Fixed"   NLCoeff=0.002   PhiB=0.9   PhiC=0.9   PhiTY=0.9   PhiTF=0.75   PhiV=0.9   PhiVRolledI=1   PhiVT=0.9   PlugWeld=Yes   HSSWelding=ERW   HSSReduceT=No _
        CheckDefl=No   DLRat=120   SDLAndLLRat=120   LLRat=360   TotalRat=240   NetRat=240
 
TABLE:  "PROGRAM CONTROL"
   ProgramName=SAP2000   Version=20.2.0   CurrUnits="Kgf, cm, C"   SteelCode="AISC 360-10"   ConcCode="ACI 318-14"   AlumCode="AA-ASD 2000"   ColdCode=AISI-ASD96   RegenHinge=Yes
 
TABLE:  "PROJECT INFORMATION"
   Item="Company Name"
   Item="Client Name"
   Item="Project Name"
   Item="Project Number"
   Item="Model Name"
   Item="Model Description"
   Item="Revision Number"
   Item="Frame Type"
   Item=Engineer
   Item=Checker
   Item=Supervisor
   Item="Issue Code"
   Item="Design Code"
 
TABLE:  "REBAR SIZES"
   RebarID=#2   Area=0.32258   Diameter=0.635
   RebarID=#3   Area=0.709675996154547   Diameter=0.9525
   RebarID=#4   Area=1.29032001922727   Diameter=1.27
   RebarID=#5   Area=1.99999601538181   Diameter=1.5875
   RebarID=#6   Area=2.83870398461819   Diameter=1.905
   RebarID=#7   Area=3.87096015381813   Diameter=2.2225
   RebarID=#8   Area=5.09676413843632   Diameter=2.54
   RebarID=#9   Area=6.4516   Diameter=2.86512005329132
   RebarID=#10   Area=8.1935318769455   Diameter=3.22579995155334
   RebarID=#11   Area=10.0644956308365   Diameter=3.58139991521835
   RebarID=#14   Area=14.5161   Diameter=4.30021989583969
   RebarID=#18   Area=25.8064   Diameter=5.73277992248535
   RebarID=10M   Area=1.00000002655387   Diameter=1.1300000667572
   RebarID=15M   Area=2.00000005310774   Diameter=1.59999999403954
   RebarID=20M   Area=3.00000017579794   Diameter=1.94999997854233
   RebarID=25M   Area=5.00000022890568   Diameter=2.52000016093254
   RebarID=30M   Area=7.00000008974075   Diameter=2.99000008821487
   RebarID=35M   Area=10.0000004578114   Diameter=3.57000011444092
   RebarID=45M   Area=15.0000010712624   Diameter=4.37000003576279
   RebarID=55M   Area=25.0000007599831   Diameter=5.64000033855438
   RebarID=6d   Area=0.283000004149973   Diameter=0.600000016689301
   RebarID=8d   Area=0.502999995571375   Diameter=0.799999997019768
   RebarID=10d   Area=0.785000013634563   Diameter=0.999999977350235
   RebarID=12d   Area=1.13000009249449   Diameter=1.2000000333786
   RebarID=14d   Area=1.54000010818839   Diameter=1.40000008940697
   RebarID=16d   Area=2.01000015431643   Diameter=1.59999999403954
   RebarID=20d   Area=3.14000005453825   Diameter=1.99999995470047
   RebarID=25d   Area=4.91000008711815   Diameter=2.50000001907349
   RebarID=26d   Area=5.31000029001236   Diameter=2.59999997138977
   RebarID=28d   Area=6.16000043275356   Diameter=2.80000017881393
   RebarID=N12   Area=1.13000009249449   Diameter=1.2000000333786
   RebarID=N16   Area=2.01000015431643   Diameter=1.59999999403954
   RebarID=N20   Area=3.14000005453825   Diameter=1.99999995470047
   RebarID=N24   Area=4.52000036997795   Diameter=2.4000000667572
   RebarID=N28   Area=6.16000043275356   Diameter=2.80000017881393
   RebarID=N32   Area=8.0400006172657   Diameter=3.19999998807907
   RebarID=N36   Area=10.2000001747131   Diameter=3.6000001001358
 
END TABLE DATA
